omf/scratch/CIGAR/test_R1-12.47-1-AddSolar-Wye.glm
clock {
	starttime '2000-01-01 5:00:00';
	stoptime '2000-01-01 5:30:00';
};

module tape;
module generators;
module powerflow {
	solver_method NR;
	default_maximum_voltage_error 1e-6;
};

object regulator:4383 {
	phases ABCN;
	from R1-12-47-1_node_617;
	name R1-12-47-1_reg_1;
	to R1-12-47-1_meter_21;
	configuration feeder_reg_cfg;
};

object regulator_configuration:4384 {
	Control OUTPUT_VOLTAGE;
	raise_taps 16;
	name feeder_reg_cfg;
	band_center 7520.0;
	tap_pos_A 0;
	tap_pos_B 0;
	connect_type WYE_WYE;
	time_delay 30;
	regulation 0.10;
	band_width 120;
	tap_pos_C 0;
	lower_taps 16;
};

object capacitor:4380 {
	control VOLT;
	phases ABCN;
	name R1-12-47-1_cap_1;
	parent R1-12-47-1_node_422;
	capacitor_B 0.15 MVAr;
	capacitor_C 0.15 MVAr;
	phases_connected ABC;
	capacitor_A 0.15 MVAr;
	time_delay 30.0;
	nominal_voltage 7216.88;
	cap_nominal_voltage 7220;
	voltage_set_low 7100;
	switchC CLOSED;
	control_level INDIVIDUAL;
	switchA CLOSED;
	switchB CLOSED;
	pt_phase B;
	dwell_time 30.0;
	voltage_set_high 7300;
};

object capacitor:4381 {
	control VOLT;
	phases ABCN;
	name R1-12-47-1_cap_2;
	parent R1-12-47-1_node_216;
	capacitor_B 0.3 MVAr;
	capacitor_C 0.3 MVAr;
	phases_connected ABC;
	capacitor_A 0.3 MVAr;
	time_delay 30.0;
	nominal_voltage 7216.88;
	cap_nominal_voltage 7220;
	voltage_set_low 7100;
	control_level INDIVIDUAL;
	pt_phase B;
	dwell_time 30.0;
	voltage_set_high 7300;
};

object capacitor {
	control MANUAL;
	phases CN;
	name R1-12-47-1_cap_3;
	parent R1-12-47-1_node_248;
	capacitor_B 0.15 MVAr;
	capacitor_C 0.15 MVAr;
	phases_connected C;
	capacitor_A 0.15 MVAr;
	time_delay 30.0;
	nominal_voltage 7216.88;
	cap_nominal_voltage 7216.88;
	switchB CLOSED;
	switchC CLOSED;
	control_level INDIVIDUAL;
	switchA CLOSED;
	pt_phase C;
	dwell_time 30.0;
};

object fuse:4249 {
	status CLOSED;
	phases AN;
	from R1-12-47-1_node_596;
	name R1-12-47-1_fuse_1;
	current_limit 50000;
	to R1-12-47-1_node_599;
};

object fuse:4250 {
	status CLOSED;
	phases AN;
	from R1-12-47-1_node_594;
	name R1-12-47-1_fuse_2;
	current_limit 50000;
	to R1-12-47-1_node_595;
};

object fuse:4251 {
	status CLOSED;
	phases AN;
	from R1-12-47-1_node_508;
	name R1-12-47-1_fuse_3;
	current_limit 50000;
	to R1-12-47-1_node_510;
};

object fuse:4252 {
	status CLOSED;
	phases AN;
	from R1-12-47-1_node_503;
	name R1-12-47-1_fuse_4;
	current_limit 50000;
	to R1-12-47-1_node_511;
};

object fuse:4253 {
	status CLOSED;
	phases AN;
	from R1-12-47-1_node_512;
	name R1-12-47-1_fuse_5;
	current_limit 50000;
	to R1-12-47-1_node_513;
};

object fuse:4254 {
	status CLOSED;
	phases AN;
	from R1-12-47-1_node_474;
	name R1-12-47-1_fuse_6;
	current_limit 50000;
	to R1-12-47-1_node_477;
};

object fuse:4255 {
	status CLOSED;
	phases AN;
	from R1-12-47-1_node_474;
	name R1-12-47-1_fuse_7;
	current_limit 50000;
	to R1-12-47-1_node_480;
};

object fuse:4256 {
	status CLOSED;
	phases AN;
	from R1-12-47-1_node_522;
	name R1-12-47-1_fuse_8;
	current_limit 50000;
	to R1-12-47-1_node_524;
};

object fuse:4257 {
	status CLOSED;
	phases AN;
	from R1-12-47-1_node_576;
	name R1-12-47-1_fuse_9;
	current_limit 50000;
	to R1-12-47-1_node_577;
};

object fuse:4258 {
	status CLOSED;
	phases AN;
	from R1-12-47-1_node_515;
	name R1-12-47-1_fuse_10;
	current_limit 50000;
	to R1-12-47-1_node_518;
};

object fuse:4259 {
	status CLOSED;
	phases AN;
	from R1-12-47-1_node_580;
	name R1-12-47-1_fuse_11;
	current_limit 50000;
	to R1-12-47-1_node_581;
};

object fuse:4260 {
	status CLOSED;
	phases BN;
	from R1-12-47-1_node_562;
	name R1-12-47-1_fuse_12;
	current_limit 50000;
	to R1-12-47-1_node_574;
};

object fuse:4261 {
	status CLOSED;
	phases CN;
	from R1-12-47-1_node_561;
	name R1-12-47-1_fuse_13;
	current_limit 50000;
	to R1-12-47-1_node_567;
};

object fuse:4262 {
	status CLOSED;
	phases AN;
	from R1-12-47-1_node_485;
	name R1-12-47-1_fuse_14;
	current_limit 50000;
	to R1-12-47-1_node_487;
};

object fuse:4263 {
	status CLOSED;
	phases AN;
	from R1-12-47-1_node_560;
	name R1-12-47-1_fuse_15;
	current_limit 50000;
	to R1-12-47-1_node_566;
};

object fuse:4264 {
	status CLOSED;
	phases AN;
	from R1-12-47-1_node_569;
	name R1-12-47-1_fuse_16;
	current_limit 50000;
	to R1-12-47-1_node_570;
};

object fuse:4265 {
	status CLOSED;
	phases AN;
	from R1-12-47-1_node_496;
	name R1-12-47-1_fuse_17;
	current_limit 50000;
	to R1-12-47-1_node_498;
};

object fuse:4266 {
	status CLOSED;
	phases AN;
	from R1-12-47-1_node_490;
	name R1-12-47-1_fuse_18;
	current_limit 50000;
	to R1-12-47-1_node_492;
};

object fuse:4267 {
	status CLOSED;
	phases CN;
	from R1-12-47-1_node_559;
	name R1-12-47-1_fuse_19;
	current_limit 50000;
	to R1-12-47-1_node_563;
};

object fuse:4268 {
	status CLOSED;
	phases AN;
	from R1-12-47-1_node_417;
	name R1-12-47-1_fuse_20;
	current_limit 50000;
	to R1-12-47-1_node_418;
};

object fuse:4269 {
	status CLOSED;
	phases AN;
	from R1-12-47-1_node_552;
	name R1-12-47-1_fuse_21;
	current_limit 50000;
	to R1-12-47-1_node_553;
};

object fuse:4270 {
	status CLOSED;
	phases AN;
	from R1-12-47-1_node_461;
	name R1-12-47-1_fuse_22;
	current_limit 50000;
	to R1-12-47-1_node_466;
};

object fuse:4271 {
	status CLOSED;
	phases CN;
	from R1-12-47-1_node_551;
	name R1-12-47-1_fuse_23;
	current_limit 50000;
	to R1-12-47-1_node_555;
};

object fuse:4272 {
	status CLOSED;
	phases ABCN;
	from R1-12-47-1_node_456;
	name R1-12-47-1_fuse_24;
	current_limit 50000;
	to R1-12-47-1_node_457;
};

object fuse:4273 {
	status CLOSED;
	phases AN;
	from R1-12-47-1_node_532;
	name R1-12-47-1_fuse_25;
	current_limit 50000;
	to R1-12-47-1_node_534;
};

object fuse:4274 {
	status CLOSED;
	phases AN;
	from R1-12-47-1_node_547;
	name R1-12-47-1_fuse_26;
	current_limit 50000;
	to R1-12-47-1_node_558;
};

object fuse:4275 {
	status CLOSED;
	phases CN;
	from R1-12-47-1_node_546;
	name R1-12-47-1_fuse_27;
	current_limit 50000;
	to R1-12-47-1_node_548;
};

object fuse:4276 {
	status CLOSED;
	phases BN;
	from R1-12-47-1_node_449;
	name R1-12-47-1_fuse_28;
	current_limit 50000;
	to R1-12-47-1_node_450;
};

object fuse:4277 {
	status CLOSED;
	phases BN;
	from R1-12-47-1_node_546;
	name R1-12-47-1_fuse_29;
	current_limit 50000;
	to R1-12-47-1_node_556;
};

object fuse:4278 {
	status CLOSED;
	phases BN;
	from R1-12-47-1_node_446;
	name R1-12-47-1_fuse_30;
	current_limit 50000;
	to R1-12-47-1_node_447;
};

object fuse:4279 {
	status CLOSED;
	phases AN;
	from R1-12-47-1_node_326;
	name R1-12-47-1_fuse_31;
	current_limit 50000;
	to R1-12-47-1_node_327;
};

object fuse:4280 {
	status CLOSED;
	phases BN;
	from R1-12-47-1_node_539;
	name R1-12-47-1_fuse_32;
	current_limit 50000;
	to R1-12-47-1_node_541;
};

object fuse:4281 {
	status CLOSED;
	phases AN;
	from R1-12-47-1_node_540;
	name R1-12-47-1_fuse_33;
	current_limit 50000;
	to R1-12-47-1_node_545;
};

object fuse:4282 {
	status CLOSED;
	phases ABCN;
	from R1-12-47-1_node_434;
	name R1-12-47-1_fuse_34;
	current_limit 50000;
	to R1-12-47-1_node_435;
};

object fuse:4283 {
	status CLOSED;
	phases AN;
	from R1-12-47-1_node_355;
	name R1-12-47-1_fuse_35;
	current_limit 50000;
	to R1-12-47-1_node_356;
};

object fuse:4284 {
	status CLOSED;
	phases CN;
	from R1-12-47-1_node_359;
	name R1-12-47-1_fuse_36;
	current_limit 50000;
	to R1-12-47-1_node_419;
};

object fuse:4285 {
	status CLOSED;
	phases AN;
	from R1-12-47-1_node_229;
	name R1-12-47-1_fuse_37;
	current_limit 50000;
	to R1-12-47-1_node_232;
};

object fuse:4286 {
	status CLOSED;
	phases AN;
	from R1-12-47-1_node_538;
	name R1-12-47-1_fuse_38;
	current_limit 50000;
	to R1-12-47-1_node_543;
};

object fuse:4287 {
	status CLOSED;
	phases AN;
	from R1-12-47-1_node_543;
	name R1-12-47-1_fuse_39;
	current_limit 50000;
	to R1-12-47-1_node_544;
};

object fuse:4288 {
	status CLOSED;
	phases AN;
	from R1-12-47-1_node_342;
	name R1-12-47-1_fuse_40;
	current_limit 50000;
	to R1-12-47-1_node_354;
};

object fuse:4289 {
	status CLOSED;
	phases AN;
	from R1-12-47-1_node_335;
	name R1-12-47-1_fuse_41;
	current_limit 50000;
	to R1-12-47-1_node_336;
};

object fuse:4290 {
	status CLOSED;
	phases CN;
	from R1-12-47-1_node_536;
	name R1-12-47-1_fuse_42;
	current_limit 50000;
	to R1-12-47-1_node_537;
};

object fuse:4291 {
	status CLOSED;
	phases AN;
	from R1-12-47-1_node_346;
	name R1-12-47-1_fuse_43;
	current_limit 50000;
	to R1-12-47-1_node_410;
};

object fuse:4292 {
	status CLOSED;
	phases CN;
	from R1-12-47-1_node_345;
	name R1-12-47-1_fuse_44;
	current_limit 50000;
	to R1-12-47-1_node_358;
};

object fuse:4293 {
	status CLOSED;
	phases CN;
	from R1-12-47-1_node_441;
	name R1-12-47-1_fuse_45;
	current_limit 50000;
	to R1-12-47-1_node_442;
};

object fuse:4294 {
	status CLOSED;
	phases AN;
	from R1-12-47-1_node_420;
	name R1-12-47-1_fuse_46;
	current_limit 50000;
	to R1-12-47-1_node_421;
};

object fuse:4295 {
	status CLOSED;
	phases ABCN;
	from R1-12-47-1_node_439;
	name R1-12-47-1_fuse_47;
	current_limit 50000;
	to R1-12-47-1_node_440;
};

object fuse:4296 {
	status CLOSED;
	phases ABCN;
	from R1-12-47-1_node_217;
	name R1-12-47-1_fuse_48;
	current_limit 50000;
	to R1-12-47-1_node_334;
};

object fuse:4297 {
	status CLOSED;
	phases BN;
	from R1-12-47-1_node_433;
	name R1-12-47-1_fuse_49;
	current_limit 50000;
	to R1-12-47-1_node_432;
};

object fuse:4298 {
	status CLOSED;
	phases AN;
	from R1-12-47-1_node_233;
	name R1-12-47-1_fuse_50;
	current_limit 50000;
	to R1-12-47-1_node_237;
};

object fuse:4299 {
	status CLOSED;
	phases ABCN;
	from R1-12-47-1_node_234;
	name R1-12-47-1_fuse_51;
	current_limit 50000;
	to R1-12-47-1_node_240;
};

object fuse:4300 {
	status CLOSED;
	phases CN;
	from R1-12-47-1_node_420;
	name R1-12-47-1_fuse_52;
	current_limit 50000;
	to R1-12-47-1_node_423;
};

object fuse:4301 {
	status CLOSED;
	phases AN;
	from R1-12-47-1_node_338;
	name R1-12-47-1_fuse_53;
	current_limit 50000;
	to R1-12-47-1_node_347;
};

object fuse:4302 {
	status CLOSED;
	phases AN;
	from R1-12-47-1_node_347;
	name R1-12-47-1_fuse_54;
	current_limit 50000;
	to R1-12-47-1_node_353;
};

object fuse:4303 {
	status CLOSED;
	phases CN;
	from R1-12-47-1_node_331;
	name R1-12-47-1_fuse_55;
	current_limit 50000;
	to R1-12-47-1_node_332;
};

object fuse:4304 {
	status CLOSED;
	phases AN;
	from R1-12-47-1_node_361;
	name R1-12-47-1_fuse_56;
	current_limit 50000;
	to R1-12-47-1_node_365;
};

object fuse:4305 {
	status CLOSED;
	phases CN;
	from R1-12-47-1_node_229;
	name R1-12-47-1_fuse_57;
	current_limit 50000;
	to R1-12-47-1_node_230;
};

object fuse:4306 {
	status CLOSED;
	phases AN;
	from R1-12-47-1_node_348;
	name R1-12-47-1_fuse_58;
	current_limit 50000;
	to R1-12-47-1_node_352;
};

object fuse:4307 {
	status CLOSED;
	phases ABCN;
	from R1-12-47-1_node_361;
	name R1-12-47-1_fuse_59;
	current_limit 50000;
	to R1-12-47-1_node_362;
};

object fuse:4308 {
	status CLOSED;
	phases CN;
	from R1-12-47-1_node_218;
	name R1-12-47-1_fuse_60;
	current_limit 50000;
	to R1-12-47-1_node_219;
};

object fuse:4309 {
	status CLOSED;
	phases AN;
	from R1-12-47-1_node_350;
	name R1-12-47-1_fuse_61;
	current_limit 50000;
	to R1-12-47-1_node_351;
};

object fuse:4310 {
	status CLOSED;
	phases BN;
	from R1-12-47-1_node_211;
	name R1-12-47-1_fuse_62;
	current_limit 50000;
	to R1-12-47-1_node_213;
};

object fuse:4311 {
	status CLOSED;
	phases AN;
	from R1-12-47-1_node_374;
	name R1-12-47-1_fuse_63;
	current_limit 50000;
	to R1-12-47-1_node_381;
};

object fuse:4312 {
	status CLOSED;
	phases CN;
	from R1-12-47-1_node_368;
	name R1-12-47-1_fuse_64;
	current_limit 50000;
	to R1-12-47-1_node_370;
};

object fuse:4313 {
	status CLOSED;
	phases AN;
	from R1-12-47-1_node_371;
	name R1-12-47-1_fuse_65;
	current_limit 50000;
	to R1-12-47-1_node_372;
};

object fuse:4314 {
	status CLOSED;
	phases BN;
	from R1-12-47-1_node_203;
	name R1-12-47-1_fuse_66;
	current_limit 50000;
	to R1-12-47-1_node_208;
};

object fuse:4315 {
	status CLOSED;
	phases AN;
	from R1-12-47-1_node_372;
	name R1-12-47-1_fuse_67;
	current_limit 50000;
	to R1-12-47-1_node_380;
};

object fuse:4316 {
	status CLOSED;
	phases AN;
	from R1-12-47-1_node_383;
	name R1-12-47-1_fuse_68;
	current_limit 50000;
	to R1-12-47-1_node_384;
};

object fuse:4317 {
	status CLOSED;
	phases AN;
	from R1-12-47-1_node_391;
	name R1-12-47-1_fuse_69;
	current_limit 50000;
	to R1-12-47-1_node_394;
};

object fuse:4318 {
	status CLOSED;
	phases BN;
	from R1-12-47-1_node_211;
	name R1-12-47-1_fuse_70;
	current_limit 50000;
	to R1-12-47-1_node_214;
};

object fuse:4319 {
	status CLOSED;
	phases BN;
	from R1-12-47-1_node_393;
	name R1-12-47-1_fuse_71;
	current_limit 50000;
	to R1-12-47-1_node_396;
};

object fuse:4320 {
	status CLOSED;
	phases BN;
	from R1-12-47-1_node_205;
	name R1-12-47-1_fuse_72;
	current_limit 50000;
	to R1-12-47-1_node_206;
};

object fuse:4321 {
	status CLOSED;
	phases BN;
	from R1-12-47-1_node_175;
	name R1-12-47-1_fuse_73;
	current_limit 50000;
	to R1-12-47-1_node_205;
};

object fuse:4322 {
	status CLOSED;
	phases AN;
	from R1-12-47-1_node_140;
	name R1-12-47-1_fuse_74;
	current_limit 50000;
	to R1-12-47-1_node_163;
};

object fuse:4323 {
	status CLOSED;
	phases CN;
	from R1-12-47-1_node_140;
	name R1-12-47-1_fuse_75;
	current_limit 50000;
	to R1-12-47-1_node_167;
};

object fuse:4324 {
	status CLOSED;
	phases CN;
	from R1-12-47-1_node_168;
	name R1-12-47-1_fuse_76;
	current_limit 50000;
	to R1-12-47-1_node_170;
};

object fuse:4325 {
	status CLOSED;
	phases AN;
	from R1-12-47-1_node_159;
	name R1-12-47-1_fuse_77;
	current_limit 50000;
	to R1-12-47-1_node_160;
};

object fuse:4326 {
	status CLOSED;
	phases BN;
	from R1-12-47-1_node_403;
	name R1-12-47-1_fuse_78;
	current_limit 50000;
	to R1-12-47-1_node_405;
};

object fuse:4327 {
	status CLOSED;
	phases CN;
	from R1-12-47-1_node_173;
	name R1-12-47-1_fuse_79;
	current_limit 50000;
	to R1-12-47-1_node_182;
};

object fuse:4328 {
	status CLOSED;
	phases CN;
	from R1-12-47-1_node_182;
	name R1-12-47-1_fuse_80;
	current_limit 50000;
	to R1-12-47-1_node_185;
};

object fuse:4329 {
	status CLOSED;
	phases AN;
	from R1-12-47-1_node_133;
	name R1-12-47-1_fuse_81;
	current_limit 50000;
	to R1-12-47-1_node_141;
};

object fuse:4330 {
	status CLOSED;
	phases AN;
	from R1-12-47-1_node_404;
	name R1-12-47-1_fuse_82;
	current_limit 50000;
	to R1-12-47-1_node_408;
};

object fuse:4331 {
	status CLOSED;
	phases CN;
	from R1-12-47-1_node_183;
	name R1-12-47-1_fuse_83;
	current_limit 50000;
	to R1-12-47-1_node_186;
};

object fuse:4332 {
	status CLOSED;
	phases AN;
	from R1-12-47-1_node_147;
	name R1-12-47-1_fuse_84;
	current_limit 50000;
	to R1-12-47-1_node_149;
};

object fuse:4333 {
	status CLOSED;
	phases BN;
	from R1-12-47-1_node_134;
	name R1-12-47-1_fuse_85;
	current_limit 50000;
	to R1-12-47-1_node_135;
};

object fuse:4334 {
	status CLOSED;
	phases CN;
	from R1-12-47-1_node_189;
	name R1-12-47-1_fuse_86;
	current_limit 50000;
	to R1-12-47-1_node_190;
};

object fuse:4335 {
	status CLOSED;
	phases BN;
	from R1-12-47-1_node_74;
	name R1-12-47-1_fuse_87;
	current_limit 50000;
	to R1-12-47-1_node_78;
};

object fuse:4336 {
	status CLOSED;
	phases CN;
	from R1-12-47-1_node_191;
	name R1-12-47-1_fuse_88;
	current_limit 50000;
	to R1-12-47-1_node_193;
};

object fuse:4337 {
	status CLOSED;
	phases AN;
	from R1-12-47-1_node_67;
	name R1-12-47-1_fuse_89;
	current_limit 50000;
	to R1-12-47-1_node_72;
};

object fuse:4338 {
	status CLOSED;
	phases AN;
	from R1-12-47-1_node_23;
	name R1-12-47-1_fuse_90;
	current_limit 50000;
	to R1-12-47-1_node_24;
};

object fuse:4339 {
	status CLOSED;
	phases BN;
	from R1-12-47-1_node_44;
	name R1-12-47-1_fuse_91;
	current_limit 50000;
	to R1-12-47-1_node_128;
};

object fuse:4340 {
	status CLOSED;
	phases CN;
	from R1-12-47-1_node_44;
	name R1-12-47-1_fuse_92;
	current_limit 50000;
	to R1-12-47-1_node_45;
};

object fuse:4341 {
	status CLOSED;
	phases BN;
	from R1-12-47-1_node_44;
	name R1-12-47-1_fuse_93;
	current_limit 50000;
	to R1-12-47-1_node_127;
};

object fuse:4342 {
	status CLOSED;
	phases AN;
	from R1-12-47-1_node_64;
	name R1-12-47-1_fuse_94;
	current_limit 50000;
	to R1-12-47-1_node_70;
};

object fuse:4343 {
	status CLOSED;
	phases CN;
	from R1-12-47-1_node_195;
	name R1-12-47-1_fuse_95;
	current_limit 50000;
	to R1-12-47-1_node_197;
};

object fuse:4344 {
	status CLOSED;
	phases CN;
	from R1-12-47-1_node_195;
	name R1-12-47-1_fuse_96;
	current_limit 50000;
	to R1-12-47-1_node_196;
};

object fuse:4345 {
	status CLOSED;
	phases AN;
	from R1-12-47-1_node_63;
	name R1-12-47-1_fuse_97;
	current_limit 50000;
	to R1-12-47-1_node_69;
};

object fuse:4346 {
	status CLOSED;
	phases ABCN;
	from R1-12-47-1_node_61;
	name R1-12-47-1_fuse_98;
	current_limit 50000;
	to R1-12-47-1_node_62;
};

object fuse:4347 {
	status CLOSED;
	phases AN;
	from R1-12-47-1_node_62;
	name R1-12-47-1_fuse_99;
	current_limit 50000;
	to R1-12-47-1_node_68;
};

object fuse:4348 {
	status CLOSED;
	phases AN;
	from R1-12-47-1_node_6;
	name R1-12-47-1_fuse_100;
	current_limit 50000;
	to R1-12-47-1_node_28;
};

object fuse:4349 {
	status CLOSED;
	phases AN;
	from R1-12-47-1_node_21;
	name R1-12-47-1_fuse_101;
	current_limit 50000;
	to R1-12-47-1_node_22;
};

object fuse:4350 {
	status CLOSED;
	phases AN;
	from R1-12-47-1_node_13;
	name R1-12-47-1_fuse_102;
	current_limit 50000;
	to R1-12-47-1_node_34;
};

object fuse:4351 {
	status CLOSED;
	phases ABCN;
	from R1-12-47-1_node_47;
	name R1-12-47-1_fuse_103;
	current_limit 50000;
	to R1-12-47-1_node_48;
};

object fuse:4352 {
	status CLOSED;
	phases BN;
	from R1-12-47-1_node_14;
	name R1-12-47-1_fuse_104;
	current_limit 50000;
	to R1-12-47-1_node_38;
};

object fuse:4353 {
	status CLOSED;
	phases AN;
	from R1-12-47-1_node_11;
	name R1-12-47-1_fuse_105;
	current_limit 50000;
	to R1-12-47-1_node_31;
};

object fuse:4354 {
	status CLOSED;
	phases ABCN;
	from R1-12-47-1_node_61;
	name R1-12-47-1_fuse_106;
	current_limit 50000;
	to R1-12-47-1_node_79;
};

object fuse:4355 {
	status CLOSED;
	phases AN;
	from R1-12-47-1_node_25;
	name R1-12-47-1_fuse_107;
	current_limit 50000;
	to R1-12-47-1_node_26;
};

object fuse:4356 {
	status CLOSED;
	phases BN;
	from R1-12-47-1_node_7;
	name R1-12-47-1_fuse_108;
	current_limit 50000;
	to R1-12-47-1_node_29;
};

object fuse:4357 {
	status CLOSED;
	phases CN;
	from R1-12-47-1_node_52;
	name R1-12-47-1_fuse_109;
	current_limit 50000;
	to R1-12-47-1_node_54;
};

object fuse:4358 {
	status CLOSED;
	phases AN;
	from R1-12-47-1_node_50;
	name R1-12-47-1_fuse_110;
	current_limit 50000;
	to R1-12-47-1_node_53;
};

object fuse:4359 {
	status CLOSED;
	phases BN;
	from R1-12-47-1_node_80;
	name R1-12-47-1_fuse_111;
	current_limit 50000;
	to R1-12-47-1_node_84;
};

object fuse:4360 {
	status CLOSED;
	phases AN;
	from R1-12-47-1_node_117;
	name R1-12-47-1_fuse_112;
	current_limit 50000;
	to R1-12-47-1_node_119;
};

object fuse:4361 {
	status CLOSED;
	phases CN;
	from R1-12-47-1_node_88;
	name R1-12-47-1_fuse_113;
	current_limit 50000;
	to R1-12-47-1_node_91;
};

object fuse:4362 {
	status CLOSED;
	phases AN;
	from R1-12-47-1_node_88;
	name R1-12-47-1_fuse_114;
	current_limit 50000;
	to R1-12-47-1_node_106;
};

object fuse:4363 {
	status CLOSED;
	phases AN;
	from R1-12-47-1_node_121;
	name R1-12-47-1_fuse_115;
	current_limit 50000;
	to R1-12-47-1_node_125;
};

object fuse:4364 {
	status CLOSED;
	phases CN;
	from R1-12-47-1_node_89;
	name R1-12-47-1_fuse_116;
	current_limit 50000;
	to R1-12-47-1_node_93;
};

object fuse:4365 {
	status CLOSED;
	phases AN;
	from R1-12-47-1_node_117;
	name R1-12-47-1_fuse_117;
	current_limit 50000;
	to R1-12-47-1_node_118;
};

object fuse:4366 {
	status CLOSED;
	phases AN;
	from R1-12-47-1_node_107;
	name R1-12-47-1_fuse_118;
	current_limit 50000;
	to R1-12-47-1_node_108;
};

object fuse:4367 {
	status CLOSED;
	phases CN;
	from R1-12-47-1_node_101;
	name R1-12-47-1_fuse_119;
	current_limit 50000;
	to R1-12-47-1_node_102;
};

object fuse:4368 {
	status CLOSED;
	phases AN;
	from R1-12-47-1_node_123;
	name R1-12-47-1_fuse_120;
	current_limit 50000;
	to R1-12-47-1_node_124;
};

object fuse:4369 {
	status CLOSED;
	phases CN;
	from R1-12-47-1_node_90;
	name R1-12-47-1_fuse_121;
	current_limit 50000;
	to R1-12-47-1_node_97;
};

object fuse:4370 {
	status CLOSED;
	phases CN;
	from R1-12-47-1_node_103;
	name R1-12-47-1_fuse_122;
	current_limit 50000;
	to R1-12-47-1_node_105;
};

object line_configuration:16 {
	conductor_A underground_line_conductor:2;
	conductor_N underground_line_conductor:2;
	spacing line_spacing:11;
};

object line_configuration:17 {
	conductor_N underground_line_conductor:2;
	spacing line_spacing:12;
	conductor_B underground_line_conductor:2;
};

object line_configuration:18 {
	conductor_A overhead_line_conductor:3;
	conductor_N overhead_line_conductor:3;
	spacing line_spacing:11;
};

object line_configuration:19 {
	spacing line_spacing:13;
	conductor_N overhead_line_conductor:3;
	conductor_A overhead_line_conductor:3;
	conductor_C overhead_line_conductor:3;
	conductor_B overhead_line_conductor:3;
};

object line_configuration:20 {
	conductor_N underground_line_conductor:2;
	spacing line_spacing:14;
	conductor_C underground_line_conductor:2;
};

object line_configuration:21 {
	conductor_N overhead_line_conductor:3;
	spacing line_spacing:14;
	conductor_C overhead_line_conductor:3;
};

object line_configuration:22 {
	spacing line_spacing:13;
	conductor_N overhead_line_conductor:4;
	conductor_A overhead_line_conductor:4;
	conductor_C overhead_line_conductor:4;
	conductor_B overhead_line_conductor:4;
};

object line_configuration:23 {
	conductor_A overhead_line_conductor:5;
	conductor_N overhead_line_conductor:5;
	spacing line_spacing:11;
};

object line_configuration:24 {
	conductor_N overhead_line_conductor:6;
	spacing line_spacing:14;
	conductor_C overhead_line_conductor:6;
};

object line_configuration:25 {
	spacing line_spacing:13;
	conductor_N underground_line_conductor:7;
	conductor_A underground_line_conductor:7;
	conductor_C underground_line_conductor:7;
	conductor_B underground_line_conductor:7;
};

object line_configuration:26 {
	spacing line_spacing:13;
	conductor_N underground_line_conductor:8;
	conductor_A underground_line_conductor:8;
	conductor_C underground_line_conductor:8;
	conductor_B underground_line_conductor:8;
};

object line_configuration:27 {
	conductor_A overhead_line_conductor:9;
	conductor_N overhead_line_conductor:9;
	spacing line_spacing:11;
};

object line_configuration:28 {
	conductor_N overhead_line_conductor:3;
	spacing line_spacing:12;
	conductor_B overhead_line_conductor:3;
};

object line_configuration:29 {
	conductor_A overhead_line_conductor:6;
	conductor_N overhead_line_conductor:6;
	spacing line_spacing:11;
};

object line_configuration:30 {
	conductor_N overhead_line_conductor:9;
	spacing line_spacing:14;
	conductor_C overhead_line_conductor:9;
};

object line_configuration:31 {
	conductor_A underground_line_conductor:2;
	conductor_N underground_line_conductor:2;
	spacing line_spacing:15;
	conductor_C underground_line_conductor:2;
};

object line_configuration:32 {
	spacing line_spacing:13;
	conductor_N overhead_line_conductor:10;
	conductor_A overhead_line_conductor:10;
	conductor_C overhead_line_conductor:10;
	conductor_B overhead_line_conductor:10;
};

object line_configuration:33 {
	conductor_N overhead_line_conductor:9;
	spacing line_spacing:12;
	conductor_B overhead_line_conductor:9;
};

object line_configuration:34 {
	conductor_N overhead_line_conductor:5;
	spacing line_spacing:12;
	conductor_B overhead_line_conductor:5;
};

object line_spacing:11 {
	distance_AN 51.6 in;
};

object line_spacing:12 {
	distance_BN 51.6 in;
};

object line_spacing:13 {
	distance_BC 57.6 in;
	distance_CN 51.6 in;
	distance_AN 51.6 in;
	distance_AB 57.6 in;
	distance_BN 51.6 in;
	distance_AC 57.6 in;
};

object line_spacing:14 {
	distance_CN 51.6 in;
};

object line_spacing:15 {
	distance_CN 51.6 in;
	distance_AN 51.6 in;
	distance_AC 57.6 in;
};

object load:651 {
	phases CN;
	name R1-12-47-1_load_1;
	parent R1-12-47-1_meter_1;
	load_class C;
	voltage_C -3608.44+6250j;
	constant_power_C 366446.0143+125680.8384j;
	nominal_voltage 480;
};

object load:652 {
	phases AN;
	name R1-12-47-1_load_2;
	parent R1-12-47-1_meter_2;
	load_class C;
	voltage_A 7216.88+0.0j;
	nominal_voltage 480;
	constant_power_A 8271.7473+9205.9446j;
};

object load:653 {
	phases CN;
	name R1-12-47-1_load_3;
	parent R1-12-47-1_meter_3;
	load_class C;
	voltage_C -3608.44+6250j;
	constant_power_C 46160.4072+13975.7002j;
	nominal_voltage 480;
};

object load:654 {
	phases ABCN;
	name R1-12-47-1_load_4;
	parent R1-12-47-1_meter_4;
	load_class C;
	voltage_B -3608.44-6250j;
	voltage_C -3608.44+6250j;
	voltage_A 7216.88+0.0j;
	constant_power_C 8339.1026+3255.4855j;
	constant_power_B 8339.1026+3255.4855j;
	constant_power_A 8339.1026+3255.4855j;
	nominal_voltage 480;
};

object load:655 {
	phases ABCN;
	name R1-12-47-1_load_5;
	parent R1-12-47-1_meter_5;
	load_class C;
	voltage_B -3608.44-6250j;
	voltage_C -3608.44+6250j;
	voltage_A 7216.88+0.0j;
	constant_power_C 30326.5626+7935.246j;
	constant_power_B 30326.5626+7935.246j;
	constant_power_A 30326.5626+7935.246j;
	nominal_voltage 480;
};

object load:656 {
	phases ABCN;
	name R1-12-47-1_load_6;
	parent R1-12-47-1_meter_6;
	load_class C;
	voltage_B -3608.44-6250j;
	voltage_C -3608.44+6250j;
	voltage_A 7216.88+0.0j;
	constant_power_C 15784.7299+6162.1691j;
	constant_power_B 15784.7299+6162.1691j;
	constant_power_A 15784.7299+6162.1691j;
	nominal_voltage 480;
};

object load:657 {
	phases ABCN;
	name R1-12-47-1_load_7;
	parent R1-12-47-1_meter_7;
	load_class C;
	voltage_B -3608.44-6250j;
	voltage_C -3608.44+6250j;
	voltage_A 7216.88+0.0j;
	constant_power_C 63757.1314+26911.7716j;
	constant_power_B 32165.11+12556.8728j;
	constant_power_A 7958.5631+8857.3899j;
	nominal_voltage 480;
};

object load:658 {
	phases AN;
	name R1-12-47-1_load_8;
	parent R1-12-47-1_meter_8;
	load_class C;
	voltage_A 7216.88+0.0j;
	nominal_voltage 480;
	constant_power_A 6411.0647+7135.1197j;
};

object load:659 {
	phases CN;
	name R1-12-47-1_load_9;
	parent R1-12-47-1_meter_9;
	load_class C;
	voltage_C -3608.44+6250j;
	constant_power_C 55746.1176+19612.9574j;
	nominal_voltage 480;
};

object load:660 {
	phases CN;
	name R1-12-47-1_load_10;
	parent R1-12-47-1_meter_10;
	load_class C;
	voltage_C -3608.44+6250j;
	constant_power_C 25534.1242+4071.3524j;
	nominal_voltage 480;
};

object load:661 {
	phases ABCN;
	name R1-12-47-1_load_11;
	parent R1-12-47-1_meter_11;
	load_class C;
	voltage_B -3608.44-6250j;
	voltage_C -3608.44+6250j;
	voltage_A 7216.88+0.0j;
	constant_power_C 9083.6653+3546.1539j;
	constant_power_B 9083.6653+3546.1539j;
	constant_power_A 9083.6653+3546.1539j;
	nominal_voltage 480;
};

object load:662 {
	phases CN;
	name R1-12-47-1_load_12;
	parent R1-12-47-1_meter_12;
	load_class C;
	voltage_C -3608.44+6250j;
	constant_power_C 37550.7864+20648.1525j;
	nominal_voltage 480;
};

object load:663 {
	phases AN;
	name R1-12-47-1_load_13;
	parent R1-12-47-1_meter_13;
	load_class A;
	voltage_A 7216.88+0.0j;
	nominal_voltage 480;
	constant_power_A 3076.5742+3424.0373j;
};

object load:664 {
	phases AN;
	name R1-12-47-1_load_14;
	parent R1-12-47-1_meter_14;
	load_class A;
	voltage_A 7216.88+0.0j;
	nominal_voltage 480;
	constant_power_A 1584.3436+1763.2767j;
};

object load:665 {
	phases AN;
	name R1-12-47-1_load_15;
	parent R1-12-47-1_meter_15;
	load_class A;
	voltage_A 7216.88+0.0j;
	nominal_voltage 480;
	constant_power_A 1547.4984+1722.2703j;
};

object load:666 {
	phases AN;
	name R1-12-47-1_load_16;
	parent R1-12-47-1_meter_16;
	load_class A;
	voltage_A 7216.88+0.0j;
	nominal_voltage 480;
	constant_power_A 6374.2195+7094.1132j;
};

object load:667 {
	phases AN;
	name R1-12-47-1_load_17;
	parent R1-12-47-1_meter_17;
	load_class A;
	voltage_A 7216.88+0.0j;
	nominal_voltage 480;
	constant_power_A 4163.5076+4633.7271j;
};

object load:668 {
	phases AN;
	name R1-12-47-1_load_18;
	parent R1-12-47-1_meter_18;
	load_class A;
	voltage_A 7216.88+0.0j;
	nominal_voltage 480;
	constant_power_A 6411.0647+7135.1197j;
};

object load:669 {
	phases ABCN;
	name R1-12-47-1_load_19;
	parent R1-12-47-1_meter_19;
	load_class A;
	voltage_B -3608.44-6250j;
	voltage_C -3608.44+6250j;
	voltage_A 7216.88+0.0j;
	constant_power_C 14370.0607+5609.8992j;
	constant_power_B 14370.0607+5609.8992j;
	constant_power_A 14370.0607+5609.8992j;
	nominal_voltage 480;
};

object load:670 {
	phases ABCN;
	name R1-12-47-1_load_20;
	parent R1-12-47-1_meter_20;
	load_class A;
	voltage_B -3608.44-6250j;
	voltage_C -3608.44+6250j;
	voltage_A 7216.88+0.0j;
	constant_power_C 10721.7033+4185.6243j;
	constant_power_B 10721.7033+4185.6243j;
	constant_power_A 10721.7033+4185.6243j;
	nominal_voltage 480;
};

object meter:2465 {
	phases CN;
	nominal_voltage 480;
	name R1-12-47-1_meter_1;
};

object meter:2466 {
	phases AN;
	nominal_voltage 480;
	name R1-12-47-1_meter_2;
};

object meter:2467 {
	phases CN;
	nominal_voltage 480;
	name R1-12-47-1_meter_3;
};

object meter:2468 {
	phases ABCN;
	nominal_voltage 480;
	name R1-12-47-1_meter_4;
};

object meter:2469 {
	phases ABCN;
	nominal_voltage 480;
	name R1-12-47-1_meter_5;
};

object meter:2470 {
	phases ABCN;
	nominal_voltage 480;
	name R1-12-47-1_meter_6;
};

object meter:2471 {
	phases ABCN;
	nominal_voltage 480;
	name R1-12-47-1_meter_7;
};

object meter:2472 {
	phases AN;
	nominal_voltage 480;
	name R1-12-47-1_meter_8;
};

object meter:2473 {
	phases CN;
	nominal_voltage 480;
	name R1-12-47-1_meter_9;
};

object meter:2474 {
	phases CN;
	nominal_voltage 480;
	name R1-12-47-1_meter_10;
};

object meter:2475 {
	phases ABCN;
	nominal_voltage 480;
	name R1-12-47-1_meter_11;
};

object meter:2476 {
	phases CN;
	nominal_voltage 480;
	name R1-12-47-1_meter_12;
};

object meter:2477 {
	phases AN;
	nominal_voltage 480;
	name R1-12-47-1_meter_13;
};

object meter:2478 {
	phases AN;
	nominal_voltage 480;
	name R1-12-47-1_meter_14;
};

object meter:2479 {
	phases AN;
	nominal_voltage 480;
	name R1-12-47-1_meter_15;
};

object meter:2480 {
	phases AN;
	nominal_voltage 480;
	name R1-12-47-1_meter_16;
};

object meter:2481 {
	phases AN;
	nominal_voltage 480;
	name R1-12-47-1_meter_17;
};

object meter:2482 {
	phases AN;
	nominal_voltage 480;
	name R1-12-47-1_meter_18;
};

object meter:2483 {
	phases ABCN;
	nominal_voltage 480;
	name R1-12-47-1_meter_19;
};

object meter:2484 {
	phases ABCN;
	nominal_voltage 480;
	name R1-12-47-1_meter_20;
};

object meter:4382 {
	phases ABCN;
	nominal_voltage 480;
	name R1-12-47-1_meter_21;
};

object node:35 {
	phases ABCN;
	name R1-12-47-1_node_1;
	voltage_B -3608.44-6250j;
	voltage_C -3608.44+6250j;
	voltage_A 7216.88+0.0j;
	nominal_voltage 7216.88;
};

object node:36 {
	phases ABCN;
	name R1-12-47-1_node_2;
	voltage_B -3608.44-6250j;
	voltage_C -3608.44+6250j;
	voltage_A 7216.88+0.0j;
	nominal_voltage 7216.88;
};

object node:37 {
	phases ABCN;
	name R1-12-47-1_node_3;
	voltage_B -3608.44-6250j;
	voltage_C -3608.44+6250j;
	voltage_A 7216.88+0.0j;
	nominal_voltage 7216.88;
};

object node:38 {
	phases ABCN;
	name R1-12-47-1_node_4;
	voltage_B -3608.44-6250j;
	voltage_C -3608.44+6250j;
	voltage_A 7216.88+0.0j;
	nominal_voltage 7216.88;
};

object node:39 {
	phases ABCN;
	name R1-12-47-1_node_5;
	voltage_B -3608.44-6250j;
	voltage_C -3608.44+6250j;
	voltage_A 7216.88+0.0j;
	nominal_voltage 7216.88;
};

object node:40 {
	phases ABCN;
	name R1-12-47-1_node_6;
	voltage_B -3608.44-6250j;
	voltage_C -3608.44+6250j;
	voltage_A 7216.88+0.0j;
	nominal_voltage 7216.88;
};

object node:41 {
	phases ABCN;
	name R1-12-47-1_node_7;
	voltage_B -3608.44-6250j;
	voltage_C -3608.44+6250j;
	voltage_A 7216.88+0.0j;
	nominal_voltage 7216.88;
};

object node:42 {
	phases ABCN;
	name R1-12-47-1_node_8;
	voltage_B -3608.44-6250j;
	voltage_C -3608.44+6250j;
	voltage_A 7216.88+0.0j;
	nominal_voltage 7216.88;
};

object node:43 {
	phases ABCN;
	name R1-12-47-1_node_9;
	voltage_B -3608.44-6250j;
	voltage_C -3608.44+6250j;
	voltage_A 7216.88+0.0j;
	nominal_voltage 7216.88;
};

object node:44 {
	phases ABCN;
	name R1-12-47-1_node_10;
	voltage_B -3608.44-6250j;
	voltage_C -3608.44+6250j;
	voltage_A 7216.88+0.0j;
	nominal_voltage 7216.88;
};

object node:45 {
	phases ABCN;
	name R1-12-47-1_node_11;
	voltage_B -3608.44-6250j;
	voltage_C -3608.44+6250j;
	voltage_A 7216.88+0.0j;
	nominal_voltage 7216.88;
};

object node:46 {
	phases ABCN;
	name R1-12-47-1_node_12;
	voltage_B -3608.44-6250j;
	voltage_C -3608.44+6250j;
	voltage_A 7216.88+0.0j;
	nominal_voltage 7216.88;
};

object node:47 {
	phases ABCN;
	name R1-12-47-1_node_13;
	voltage_B -3608.44-6250j;
	voltage_C -3608.44+6250j;
	voltage_A 7216.88+0.0j;
	nominal_voltage 7216.88;
};

object node:48 {
	phases ABCN;
	name R1-12-47-1_node_14;
	voltage_B -3608.44-6250j;
	voltage_C -3608.44+6250j;
	voltage_A 7216.88+0.0j;
	nominal_voltage 7216.88;
};

object node:49 {
	phases ABCN;
	name R1-12-47-1_node_15;
	voltage_B -3608.44-6250j;
	voltage_C -3608.44+6250j;
	voltage_A 7216.88+0.0j;
	nominal_voltage 7216.88;
};

object node:50 {
	phases ABCN;
	name R1-12-47-1_node_16;
	voltage_B -3608.44-6250j;
	voltage_C -3608.44+6250j;
	voltage_A 7216.88+0.0j;
	nominal_voltage 7216.88;
};

object node:51 {
	phases ABCN;
	name R1-12-47-1_node_17;
	voltage_B -3608.44-6250j;
	voltage_C -3608.44+6250j;
	voltage_A 7216.88+0.0j;
	nominal_voltage 7216.88;
};

object node:52 {
	phases ABCN;
	name R1-12-47-1_node_18;
	voltage_B -3608.44-6250j;
	voltage_C -3608.44+6250j;
	voltage_A 7216.88+0.0j;
	nominal_voltage 7216.88;
};

object node:53 {
	phases ABCN;
	name R1-12-47-1_node_19;
	voltage_B -3608.44-6250j;
	voltage_C -3608.44+6250j;
	voltage_A 7216.88+0.0j;
	nominal_voltage 7216.88;
};

object node:54 {
	phases ABCN;
	name R1-12-47-1_node_20;
	voltage_B -3608.44-6250j;
	voltage_C -3608.44+6250j;
	voltage_A 7216.88+0.0j;
	nominal_voltage 7216.88;
};

object node:55 {
	phases ABCN;
	name R1-12-47-1_node_21;
	voltage_B -3608.44-6250j;
	voltage_C -3608.44+6250j;
	voltage_A 7216.88+0.0j;
	nominal_voltage 7216.88;
};

object node:56 {
	phases AN;
	nominal_voltage 7216.88;
	name R1-12-47-1_node_22;
	voltage_A 7216.88+0.0j;
};

object node:57 {
	phases AN;
	nominal_voltage 7216.88;
	name R1-12-47-1_node_23;
	voltage_A 7216.88+0.0j;
};

object node:58 {
	phases AN;
	nominal_voltage 7216.88;
	name R1-12-47-1_node_24;
	voltage_A 7216.88+0.0j;
};

object node:59 {
	phases ABCN;
	name R1-12-47-1_node_25;
	voltage_B -3608.44-6250j;
	voltage_C -3608.44+6250j;
	voltage_A 7216.88+0.0j;
	nominal_voltage 7216.88;
};

object node:60 {
	phases AN;
	nominal_voltage 7216.88;
	name R1-12-47-1_node_26;
	voltage_A 7216.88+0.0j;
};

object node:61 {
	phases AN;
	nominal_voltage 7216.88;
	name R1-12-47-1_node_27;
	voltage_A 7216.88+0.0j;
};

object node:62 {
	phases AN;
	nominal_voltage 7216.88;
	name R1-12-47-1_node_28;
	voltage_A 7216.88+0.0j;
};

object node:63 {
	voltage_B -3608.44-6250j;
	phases BN;
	nominal_voltage 7216.88;
	name R1-12-47-1_node_29;
};

object node:64 {
	voltage_B -3608.44-6250j;
	phases BN;
	nominal_voltage 7216.88;
	name R1-12-47-1_node_30;
};

object node:65 {
	phases AN;
	nominal_voltage 7216.88;
	name R1-12-47-1_node_31;
	voltage_A 7216.88+0.0j;
};

object node:66 {
	phases AN;
	nominal_voltage 7216.88;
	name R1-12-47-1_node_32;
	voltage_A 7216.88+0.0j;
};

object node:67 {
	phases AN;
	nominal_voltage 7216.88;
	name R1-12-47-1_node_33;
	voltage_A 7216.88+0.0j;
};

object node:68 {
	phases AN;
	nominal_voltage 7216.88;
	name R1-12-47-1_node_34;
	voltage_A 7216.88+0.0j;
};

object node:69 {
	phases AN;
	nominal_voltage 7216.88;
	name R1-12-47-1_node_35;
	voltage_A 7216.88+0.0j;
};

object node:70 {
	phases AN;
	nominal_voltage 7216.88;
	name R1-12-47-1_node_36;
	voltage_A 7216.88+0.0j;
};

object node:71 {
	phases AN;
	nominal_voltage 7216.88;
	name R1-12-47-1_node_37;
	voltage_A 7216.88+0.0j;
};

object node:72 {
	voltage_B -3608.44-6250j;
	phases BN;
	nominal_voltage 7216.88;
	name R1-12-47-1_node_38;
};

object node:73 {
	voltage_B -3608.44-6250j;
	phases BN;
	nominal_voltage 7216.88;
	name R1-12-47-1_node_39;
};

object node:74 {
	voltage_B -3608.44-6250j;
	phases BN;
	nominal_voltage 7216.88;
	name R1-12-47-1_node_40;
};

object node:75 {
	voltage_B -3608.44-6250j;
	phases BN;
	nominal_voltage 7216.88;
	name R1-12-47-1_node_41;
};

object node:76 {
	voltage_B -3608.44-6250j;
	phases BN;
	nominal_voltage 7216.88;
	name R1-12-47-1_node_42;
};

object node:77 {
	phases ABCN;
	name R1-12-47-1_node_43;
	voltage_B -3608.44-6250j;
	voltage_C -3608.44+6250j;
	voltage_A 7216.88+0.0j;
	nominal_voltage 7216.88;
};

object node:78 {
	phases ABCN;
	name R1-12-47-1_node_44;
	voltage_B -3608.44-6250j;
	voltage_C -3608.44+6250j;
	voltage_A 7216.88+0.0j;
	nominal_voltage 7216.88;
};

object node:79 {
	voltage_C -3608.44+6250j;
	phases CN;
	nominal_voltage 7216.88;
	name R1-12-47-1_node_45;
};

object node:80 {
	voltage_C -3608.44+6250j;
	phases CN;
	nominal_voltage 7216.88;
	name R1-12-47-1_node_46;
};

object node:81 {
	phases ABCN;
	name R1-12-47-1_node_47;
	voltage_B -3608.44-6250j;
	voltage_C -3608.44+6250j;
	voltage_A 7216.88+0.0j;
	nominal_voltage 7216.88;
};

object node:82 {
	phases ABCN;
	name R1-12-47-1_node_48;
	voltage_B -3608.44-6250j;
	voltage_C -3608.44+6250j;
	voltage_A 7216.88+0.0j;
	nominal_voltage 7216.88;
};

object node:83 {
	phases ABCN;
	name R1-12-47-1_node_49;
	voltage_B -3608.44-6250j;
	voltage_C -3608.44+6250j;
	voltage_A 7216.88+0.0j;
	nominal_voltage 7216.88;
};

object node:84 {
	phases ABCN;
	name R1-12-47-1_node_50;
	voltage_B -3608.44-6250j;
	voltage_C -3608.44+6250j;
	voltage_A 7216.88+0.0j;
	nominal_voltage 7216.88;
};

object node:85 {
	phases ABCN;
	name R1-12-47-1_node_51;
	voltage_B -3608.44-6250j;
	voltage_C -3608.44+6250j;
	voltage_A 7216.88+0.0j;
	nominal_voltage 7216.88;
};

object node:86 {
	phases ABCN;
	name R1-12-47-1_node_52;
	voltage_B -3608.44-6250j;
	voltage_C -3608.44+6250j;
	voltage_A 7216.88+0.0j;
	nominal_voltage 7216.88;
};

object node:87 {
	phases AN;
	nominal_voltage 7216.88;
	name R1-12-47-1_node_53;
	voltage_A 7216.88+0.0j;
};

object node:88 {
	voltage_C -3608.44+6250j;
	phases CN;
	nominal_voltage 7216.88;
	name R1-12-47-1_node_54;
};

object node:89 {
	phases ABCN;
	name R1-12-47-1_node_55;
	voltage_B -3608.44-6250j;
	voltage_C -3608.44+6250j;
	voltage_A 7216.88+0.0j;
	nominal_voltage 7216.88;
};

object node:90 {
	phases ABCN;
	name R1-12-47-1_node_56;
	voltage_B -3608.44-6250j;
	voltage_C -3608.44+6250j;
	voltage_A 7216.88+0.0j;
	nominal_voltage 7216.88;
};

object node:91 {
	phases ABCN;
	name R1-12-47-1_node_57;
	voltage_B -3608.44-6250j;
	voltage_C -3608.44+6250j;
	voltage_A 7216.88+0.0j;
	nominal_voltage 7216.88;
};

object node:92 {
	voltage_B -3608.44-6250j;
	phases BN;
	nominal_voltage 7216.88;
	name R1-12-47-1_node_58;
};

object node:93 {
	voltage_B -3608.44-6250j;
	phases BN;
	nominal_voltage 7216.88;
	name R1-12-47-1_node_59;
};

object node:94 {
	phases ABCN;
	name R1-12-47-1_node_60;
	voltage_B -3608.44-6250j;
	voltage_C -3608.44+6250j;
	voltage_A 7216.88+0.0j;
	nominal_voltage 7216.88;
};

object node:95 {
	phases ABCN;
	name R1-12-47-1_node_61;
	voltage_B -3608.44-6250j;
	voltage_C -3608.44+6250j;
	voltage_A 7216.88+0.0j;
	nominal_voltage 7216.88;
};

object node:96 {
	phases ABCN;
	name R1-12-47-1_node_62;
	voltage_B -3608.44-6250j;
	voltage_C -3608.44+6250j;
	voltage_A 7216.88+0.0j;
	nominal_voltage 7216.88;
};

object node:97 {
	phases ABCN;
	name R1-12-47-1_node_63;
	voltage_B -3608.44-6250j;
	voltage_C -3608.44+6250j;
	voltage_A 7216.88+0.0j;
	nominal_voltage 7216.88;
};

object node:98 {
	phases ABCN;
	name R1-12-47-1_node_64;
	voltage_B -3608.44-6250j;
	voltage_C -3608.44+6250j;
	voltage_A 7216.88+0.0j;
	nominal_voltage 7216.88;
};

object node:99 {
	phases ABCN;
	name R1-12-47-1_node_65;
	voltage_B -3608.44-6250j;
	voltage_C -3608.44+6250j;
	voltage_A 7216.88+0.0j;
	nominal_voltage 7216.88;
};

object node:100 {
	phases ABCN;
	name R1-12-47-1_node_66;
	voltage_B -3608.44-6250j;
	voltage_C -3608.44+6250j;
	voltage_A 7216.88+0.0j;
	nominal_voltage 7216.88;
};

object node:101 {
	phases ABCN;
	name R1-12-47-1_node_67;
	voltage_B -3608.44-6250j;
	voltage_C -3608.44+6250j;
	voltage_A 7216.88+0.0j;
	nominal_voltage 7216.88;
};

object node:102 {
	phases AN;
	nominal_voltage 7216.88;
	name R1-12-47-1_node_68;
	voltage_A 7216.88+0.0j;
};

object node:103 {
	phases AN;
	nominal_voltage 7216.88;
	name R1-12-47-1_node_69;
	voltage_A 7216.88+0.0j;
};

object node:104 {
	phases AN;
	nominal_voltage 7216.88;
	name R1-12-47-1_node_70;
	voltage_A 7216.88+0.0j;
};

object node:105 {
	phases AN;
	nominal_voltage 7216.88;
	name R1-12-47-1_node_71;
	voltage_A 7216.88+0.0j;
};

object node:106 {
	phases AN;
	nominal_voltage 7216.88;
	name R1-12-47-1_node_72;
	voltage_A 7216.88+0.0j;
};

object node:107 {
	phases AN;
	nominal_voltage 7216.88;
	name R1-12-47-1_node_73;
	voltage_A 7216.88+0.0j;
};

object node:108 {
	phases ABCN;
	name R1-12-47-1_node_74;
	voltage_B -3608.44-6250j;
	voltage_C -3608.44+6250j;
	voltage_A 7216.88+0.0j;
	nominal_voltage 7216.88;
};

object node:109 {
	phases ABCN;
	name R1-12-47-1_node_75;
	voltage_B -3608.44-6250j;
	voltage_C -3608.44+6250j;
	voltage_A 7216.88+0.0j;
	nominal_voltage 7216.88;
};

object node:110 {
	phases ABCN;
	name R1-12-47-1_node_76;
	voltage_B -3608.44-6250j;
	voltage_C -3608.44+6250j;
	voltage_A 7216.88+0.0j;
	nominal_voltage 7216.88;
};

object node:111 {
	phases ABCN;
	name R1-12-47-1_node_77;
	voltage_B -3608.44-6250j;
	voltage_C -3608.44+6250j;
	voltage_A 7216.88+0.0j;
	nominal_voltage 7216.88;
};

object node:112 {
	voltage_B -3608.44-6250j;
	phases BN;
	nominal_voltage 7216.88;
	name R1-12-47-1_node_78;
};

object node:113 {
	phases ABCN;
	name R1-12-47-1_node_79;
	voltage_B -3608.44-6250j;
	voltage_C -3608.44+6250j;
	voltage_A 7216.88+0.0j;
	nominal_voltage 7216.88;
};

object node:114 {
	phases ABCN;
	name R1-12-47-1_node_80;
	voltage_B -3608.44-6250j;
	voltage_C -3608.44+6250j;
	voltage_A 7216.88+0.0j;
	nominal_voltage 7216.88;
};

object node:115 {
	phases ABCN;
	name R1-12-47-1_node_81;
	voltage_B -3608.44-6250j;
	voltage_C -3608.44+6250j;
	voltage_A 7216.88+0.0j;
	nominal_voltage 7216.88;
};

object node:116 {
	phases ABCN;
	name R1-12-47-1_node_82;
	voltage_B -3608.44-6250j;
	voltage_C -3608.44+6250j;
	voltage_A 7216.88+0.0j;
	nominal_voltage 7216.88;
};

object node:117 {
	phases ABCN;
	name R1-12-47-1_node_83;
	voltage_B -3608.44-6250j;
	voltage_C -3608.44+6250j;
	voltage_A 7216.88+0.0j;
	nominal_voltage 7216.88;
};

object node:118 {
	voltage_B -3608.44-6250j;
	phases BN;
	nominal_voltage 7216.88;
	name R1-12-47-1_node_84;
};

object node:119 {
	voltage_C -3608.44+6250j;
	phases CN;
	nominal_voltage 7216.88;
	name R1-12-47-1_node_85;
};

object node:120 {
	voltage_B -3608.44-6250j;
	phases BN;
	nominal_voltage 7216.88;
	name R1-12-47-1_node_86;
};

object node:121 {
	voltage_B -3608.44-6250j;
	phases BN;
	nominal_voltage 7216.88;
	name R1-12-47-1_node_87;
};

object node:122 {
	phases ABCN;
	name R1-12-47-1_node_88;
	voltage_B -3608.44-6250j;
	voltage_C -3608.44+6250j;
	voltage_A 7216.88+0.0j;
	nominal_voltage 7216.88;
};

object node:123 {
	phases ABCN;
	name R1-12-47-1_node_89;
	voltage_B -3608.44-6250j;
	voltage_C -3608.44+6250j;
	voltage_A 7216.88+0.0j;
	nominal_voltage 7216.88;
};

object node:124 {
	phases ABCN;
	name R1-12-47-1_node_90;
	voltage_B -3608.44-6250j;
	voltage_C -3608.44+6250j;
	voltage_A 7216.88+0.0j;
	nominal_voltage 7216.88;
};

object node:125 {
	voltage_C -3608.44+6250j;
	phases CN;
	nominal_voltage 7216.88;
	name R1-12-47-1_node_91;
};

object node:126 {
	voltage_C -3608.44+6250j;
	phases CN;
	nominal_voltage 7216.88;
	name R1-12-47-1_node_92;
};

object node:127 {
	voltage_C -3608.44+6250j;
	phases CN;
	nominal_voltage 7216.88;
	name R1-12-47-1_node_93;
};

object node:128 {
	voltage_C -3608.44+6250j;
	phases CN;
	nominal_voltage 7216.88;
	name R1-12-47-1_node_94;
};

object node:129 {
	voltage_C -3608.44+6250j;
	phases CN;
	nominal_voltage 7216.88;
	name R1-12-47-1_node_95;
};

object node:130 {
	voltage_C -3608.44+6250j;
	phases CN;
	nominal_voltage 7216.88;
	name R1-12-47-1_node_96;
};

object node:131 {
	voltage_C -3608.44+6250j;
	phases CN;
	nominal_voltage 7216.88;
	name R1-12-47-1_node_97;
};

object node:132 {
	voltage_C -3608.44+6250j;
	phases CN;
	nominal_voltage 7216.88;
	name R1-12-47-1_node_98;
};

object node:133 {
	voltage_C -3608.44+6250j;
	phases CN;
	nominal_voltage 7216.88;
	name R1-12-47-1_node_99;
};

object node:134 {
	voltage_C -3608.44+6250j;
	phases CN;
	nominal_voltage 7216.88;
	name R1-12-47-1_node_100;
};

object node:135 {
	voltage_C -3608.44+6250j;
	phases CN;
	nominal_voltage 7216.88;
	name R1-12-47-1_node_101;
};

object node:136 {
	voltage_C -3608.44+6250j;
	phases CN;
	nominal_voltage 7216.88;
	name R1-12-47-1_node_102;
};

object node:137 {
	voltage_C -3608.44+6250j;
	phases CN;
	nominal_voltage 7216.88;
	name R1-12-47-1_node_103;
};

object node:138 {
	voltage_C -3608.44+6250j;
	phases CN;
	nominal_voltage 7216.88;
	name R1-12-47-1_node_104;
};

object node:139 {
	voltage_C -3608.44+6250j;
	phases CN;
	nominal_voltage 7216.88;
	name R1-12-47-1_node_105;
};

object node:140 {
	phases AN;
	nominal_voltage 7216.88;
	name R1-12-47-1_node_106;
	voltage_A 7216.88+0.0j;
};

object node:141 {
	phases AN;
	nominal_voltage 7216.88;
	name R1-12-47-1_node_107;
	voltage_A 7216.88+0.0j;
};

object node:142 {
	phases AN;
	nominal_voltage 7216.88;
	name R1-12-47-1_node_108;
	voltage_A 7216.88+0.0j;
};

object node:143 {
	phases AN;
	nominal_voltage 7216.88;
	name R1-12-47-1_node_109;
	voltage_A 7216.88+0.0j;
};

object node:144 {
	phases AN;
	nominal_voltage 7216.88;
	name R1-12-47-1_node_110;
	voltage_A 7216.88+0.0j;
};

object node:145 {
	phases AN;
	nominal_voltage 7216.88;
	name R1-12-47-1_node_111;
	voltage_A 7216.88+0.0j;
};

object node:146 {
	phases AN;
	nominal_voltage 7216.88;
	name R1-12-47-1_node_112;
	voltage_A 7216.88+0.0j;
};

object node:147 {
	phases AN;
	nominal_voltage 7216.88;
	name R1-12-47-1_node_113;
	voltage_A 7216.88+0.0j;
};

object node:148 {
	phases AN;
	nominal_voltage 7216.88;
	name R1-12-47-1_node_114;
	voltage_A 7216.88+0.0j;
};

object node:149 {
	phases AN;
	nominal_voltage 7216.88;
	name R1-12-47-1_node_115;
	voltage_A 7216.88+0.0j;
};

object node:150 {
	phases AN;
	nominal_voltage 7216.88;
	name R1-12-47-1_node_116;
	voltage_A 7216.88+0.0j;
};

object node:151 {
	phases AN;
	nominal_voltage 7216.88;
	name R1-12-47-1_node_117;
	voltage_A 7216.88+0.0j;
};

object node:152 {
	phases AN;
	nominal_voltage 7216.88;
	name R1-12-47-1_node_118;
	voltage_A 7216.88+0.0j;
};

object node:153 {
	phases AN;
	nominal_voltage 7216.88;
	name R1-12-47-1_node_119;
	voltage_A 7216.88+0.0j;
};

object node:154 {
	phases AN;
	nominal_voltage 7216.88;
	name R1-12-47-1_node_120;
	voltage_A 7216.88+0.0j;
};

object node:155 {
	phases AN;
	nominal_voltage 7216.88;
	name R1-12-47-1_node_121;
	voltage_A 7216.88+0.0j;
};

object node:156 {
	phases AN;
	nominal_voltage 7216.88;
	name R1-12-47-1_node_122;
	voltage_A 7216.88+0.0j;
};

object node:157 {
	phases AN;
	nominal_voltage 7216.88;
	name R1-12-47-1_node_123;
	voltage_A 7216.88+0.0j;
};

object node:158 {
	phases AN;
	nominal_voltage 7216.88;
	name R1-12-47-1_node_124;
	voltage_A 7216.88+0.0j;
};

object node:159 {
	phases AN;
	nominal_voltage 7216.88;
	name R1-12-47-1_node_125;
	voltage_A 7216.88+0.0j;
};

object node:160 {
	phases AN;
	nominal_voltage 7216.88;
	name R1-12-47-1_node_126;
	voltage_A 7216.88+0.0j;
};

object node:161 {
	voltage_B -3608.44-6250j;
	phases BN;
	nominal_voltage 7216.88;
	name R1-12-47-1_node_127;
};

object node:162 {
	voltage_B -3608.44-6250j;
	phases BN;
	nominal_voltage 7216.88;
	name R1-12-47-1_node_128;
};

object node:163 {
	voltage_B -3608.44-6250j;
	phases BN;
	nominal_voltage 7216.88;
	name R1-12-47-1_node_129;
};

object node:164 {
	phases ABCN;
	name R1-12-47-1_node_130;
	voltage_B -3608.44-6250j;
	voltage_C -3608.44+6250j;
	voltage_A 7216.88+0.0j;
	nominal_voltage 7216.88;
};

object node:165 {
	phases ABCN;
	name R1-12-47-1_node_131;
	voltage_B -3608.44-6250j;
	voltage_C -3608.44+6250j;
	voltage_A 7216.88+0.0j;
	nominal_voltage 7216.88;
};

object node:166 {
	phases ABCN;
	name R1-12-47-1_node_132;
	voltage_B -3608.44-6250j;
	voltage_C -3608.44+6250j;
	voltage_A 7216.88+0.0j;
	nominal_voltage 7216.88;
};

object node:167 {
	phases ABCN;
	name R1-12-47-1_node_133;
	voltage_B -3608.44-6250j;
	voltage_C -3608.44+6250j;
	voltage_A 7216.88+0.0j;
	nominal_voltage 7216.88;
};

object node:168 {
	phases ABCN;
	name R1-12-47-1_node_134;
	voltage_B -3608.44-6250j;
	voltage_C -3608.44+6250j;
	voltage_A 7216.88+0.0j;
	nominal_voltage 7216.88;
};

object node:169 {
	voltage_B -3608.44-6250j;
	phases BN;
	nominal_voltage 7216.88;
	name R1-12-47-1_node_135;
};

object node:170 {
	voltage_B -3608.44-6250j;
	phases BN;
	nominal_voltage 7216.88;
	name R1-12-47-1_node_136;
};

object node:171 {
	voltage_B -3608.44-6250j;
	phases BN;
	nominal_voltage 7216.88;
	name R1-12-47-1_node_137;
};

object node:172 {
	voltage_B -3608.44-6250j;
	phases BN;
	nominal_voltage 7216.88;
	name R1-12-47-1_node_138;
};

object node:173 {
	phases ABCN;
	name R1-12-47-1_node_139;
	voltage_B -3608.44-6250j;
	voltage_C -3608.44+6250j;
	voltage_A 7216.88+0.0j;
	nominal_voltage 7216.88;
};

object node:174 {
	phases ABCN;
	name R1-12-47-1_node_140;
	voltage_B -3608.44-6250j;
	voltage_C -3608.44+6250j;
	voltage_A 7216.88+0.0j;
	nominal_voltage 7216.88;
};

object node:175 {
	phases AN;
	nominal_voltage 7216.88;
	name R1-12-47-1_node_141;
	voltage_A 7216.88+0.0j;
};

object node:176 {
	phases AN;
	nominal_voltage 7216.88;
	name R1-12-47-1_node_142;
	voltage_A 7216.88+0.0j;
};

object node:177 {
	phases AN;
	nominal_voltage 7216.88;
	name R1-12-47-1_node_143;
	voltage_A 7216.88+0.0j;
};

object node:178 {
	phases AN;
	nominal_voltage 7216.88;
	name R1-12-47-1_node_144;
	voltage_A 7216.88+0.0j;
};

object node:179 {
	phases AN;
	nominal_voltage 7216.88;
	name R1-12-47-1_node_145;
	voltage_A 7216.88+0.0j;
};

object node:180 {
	phases AN;
	nominal_voltage 7216.88;
	name R1-12-47-1_node_146;
	voltage_A 7216.88+0.0j;
};

object node:181 {
	phases AN;
	nominal_voltage 7216.88;
	name R1-12-47-1_node_147;
	voltage_A 7216.88+0.0j;
};

object node:182 {
	phases AN;
	nominal_voltage 7216.88;
	name R1-12-47-1_node_148;
	voltage_A 7216.88+0.0j;
};

object node:183 {
	phases AN;
	nominal_voltage 7216.88;
	name R1-12-47-1_node_149;
	voltage_A 7216.88+0.0j;
};

object node:184 {
	phases AN;
	nominal_voltage 7216.88;
	name R1-12-47-1_node_150;
	voltage_A 7216.88+0.0j;
};

object node:185 {
	phases AN;
	nominal_voltage 7216.88;
	name R1-12-47-1_node_151;
	voltage_A 7216.88+0.0j;
};

object node:186 {
	phases AN;
	nominal_voltage 7216.88;
	name R1-12-47-1_node_152;
	voltage_A 7216.88+0.0j;
};

object node:187 {
	phases AN;
	nominal_voltage 7216.88;
	name R1-12-47-1_node_153;
	voltage_A 7216.88+0.0j;
};

object node:188 {
	phases AN;
	nominal_voltage 7216.88;
	name R1-12-47-1_node_154;
	voltage_A 7216.88+0.0j;
};

object node:189 {
	phases AN;
	nominal_voltage 7216.88;
	name R1-12-47-1_node_155;
	voltage_A 7216.88+0.0j;
};

object node:190 {
	phases AN;
	nominal_voltage 7216.88;
	name R1-12-47-1_node_156;
	voltage_A 7216.88+0.0j;
};

object node:191 {
	phases AN;
	nominal_voltage 7216.88;
	name R1-12-47-1_node_157;
	voltage_A 7216.88+0.0j;
};

object node:192 {
	phases AN;
	nominal_voltage 7216.88;
	name R1-12-47-1_node_158;
	voltage_A 7216.88+0.0j;
};

object node:193 {
	phases AN;
	nominal_voltage 7216.88;
	name R1-12-47-1_node_159;
	voltage_A 7216.88+0.0j;
};

object node:194 {
	phases AN;
	nominal_voltage 7216.88;
	name R1-12-47-1_node_160;
	voltage_A 7216.88+0.0j;
};

object node:195 {
	phases AN;
	nominal_voltage 7216.88;
	name R1-12-47-1_node_161;
	voltage_A 7216.88+0.0j;
};

object node:196 {
	phases AN;
	nominal_voltage 7216.88;
	name R1-12-47-1_node_162;
	voltage_A 7216.88+0.0j;
};

object node:197 {
	phases AN;
	nominal_voltage 7216.88;
	name R1-12-47-1_node_163;
	voltage_A 7216.88+0.0j;
};

object node:198 {
	phases AN;
	nominal_voltage 7216.88;
	name R1-12-47-1_node_164;
	voltage_A 7216.88+0.0j;
};

object node:199 {
	phases AN;
	nominal_voltage 7216.88;
	name R1-12-47-1_node_165;
	voltage_A 7216.88+0.0j;
};

object node:200 {
	phases AN;
	nominal_voltage 7216.88;
	name R1-12-47-1_node_166;
	voltage_A 7216.88+0.0j;
};

object node:201 {
	voltage_C -3608.44+6250j;
	phases CN;
	nominal_voltage 7216.88;
	name R1-12-47-1_node_167;
};

object node:202 {
	voltage_C -3608.44+6250j;
	phases CN;
	nominal_voltage 7216.88;
	name R1-12-47-1_node_168;
};

object node:203 {
	voltage_C -3608.44+6250j;
	phases CN;
	nominal_voltage 7216.88;
	name R1-12-47-1_node_169;
};

object node:204 {
	voltage_C -3608.44+6250j;
	phases CN;
	nominal_voltage 7216.88;
	name R1-12-47-1_node_170;
};

object node:205 {
	voltage_C -3608.44+6250j;
	phases CN;
	nominal_voltage 7216.88;
	name R1-12-47-1_node_171;
};

object node:206 {
	voltage_C -3608.44+6250j;
	phases CN;
	nominal_voltage 7216.88;
	name R1-12-47-1_node_172;
};

object node:207 {
	voltage_C -3608.44+6250j;
	phases CN;
	nominal_voltage 7216.88;
	name R1-12-47-1_node_173;
};

object node:208 {
	phases ABCN;
	name R1-12-47-1_node_174;
	voltage_B -3608.44-6250j;
	voltage_C -3608.44+6250j;
	voltage_A 7216.88+0.0j;
	nominal_voltage 7216.88;
};

object node:209 {
	phases ABCN;
	name R1-12-47-1_node_175;
	voltage_B -3608.44-6250j;
	voltage_C -3608.44+6250j;
	voltage_A 7216.88+0.0j;
	nominal_voltage 7216.88;
};

object node:210 {
	voltage_C -3608.44+6250j;
	phases CN;
	nominal_voltage 7216.88;
	name R1-12-47-1_node_176;
};

object node:211 {
	voltage_C -3608.44+6250j;
	phases CN;
	nominal_voltage 7216.88;
	name R1-12-47-1_node_177;
};

object node:212 {
	voltage_C -3608.44+6250j;
	phases CN;
	nominal_voltage 7216.88;
	name R1-12-47-1_node_178;
};

object node:213 {
	voltage_C -3608.44+6250j;
	phases CN;
	nominal_voltage 7216.88;
	name R1-12-47-1_node_179;
};

object node:214 {
	voltage_C -3608.44+6250j;
	phases CN;
	nominal_voltage 7216.88;
	name R1-12-47-1_node_180;
};

object node:215 {
	voltage_C -3608.44+6250j;
	phases CN;
	nominal_voltage 7216.88;
	name R1-12-47-1_node_181;
};

object node:216 {
	voltage_C -3608.44+6250j;
	phases CN;
	nominal_voltage 7216.88;
	name R1-12-47-1_node_182;
};

object node:217 {
	voltage_C -3608.44+6250j;
	phases CN;
	nominal_voltage 7216.88;
	name R1-12-47-1_node_183;
};

object node:218 {
	voltage_C -3608.44+6250j;
	phases CN;
	nominal_voltage 7216.88;
	name R1-12-47-1_node_184;
};

object node:219 {
	voltage_C -3608.44+6250j;
	phases CN;
	nominal_voltage 7216.88;
	name R1-12-47-1_node_185;
};

object node:220 {
	voltage_C -3608.44+6250j;
	phases CN;
	nominal_voltage 7216.88;
	name R1-12-47-1_node_186;
};

object node:221 {
	voltage_C -3608.44+6250j;
	phases CN;
	nominal_voltage 7216.88;
	name R1-12-47-1_node_187;
};

object node:222 {
	voltage_C -3608.44+6250j;
	phases CN;
	nominal_voltage 7216.88;
	name R1-12-47-1_node_188;
};

object node:223 {
	voltage_C -3608.44+6250j;
	phases CN;
	nominal_voltage 7216.88;
	name R1-12-47-1_node_189;
};

object node:224 {
	voltage_C -3608.44+6250j;
	phases CN;
	nominal_voltage 7216.88;
	name R1-12-47-1_node_190;
};

object node:225 {
	voltage_C -3608.44+6250j;
	phases CN;
	nominal_voltage 7216.88;
	name R1-12-47-1_node_191;
};

object node:226 {
	voltage_C -3608.44+6250j;
	phases CN;
	nominal_voltage 7216.88;
	name R1-12-47-1_node_192;
};

object node:227 {
	voltage_C -3608.44+6250j;
	phases CN;
	nominal_voltage 7216.88;
	name R1-12-47-1_node_193;
};

object node:228 {
	voltage_C -3608.44+6250j;
	phases CN;
	nominal_voltage 7216.88;
	name R1-12-47-1_node_194;
};

object node:229 {
	voltage_C -3608.44+6250j;
	phases CN;
	nominal_voltage 7216.88;
	name R1-12-47-1_node_195;
};

object node:230 {
	voltage_C -3608.44+6250j;
	phases CN;
	nominal_voltage 7216.88;
	name R1-12-47-1_node_196;
};

object node:231 {
	voltage_C -3608.44+6250j;
	phases CN;
	nominal_voltage 7216.88;
	name R1-12-47-1_node_197;
};

object node:232 {
	voltage_C -3608.44+6250j;
	phases CN;
	nominal_voltage 7216.88;
	name R1-12-47-1_node_198;
};

object node:233 {
	voltage_C -3608.44+6250j;
	phases CN;
	nominal_voltage 7216.88;
	name R1-12-47-1_node_199;
};

object node:234 {
	voltage_C -3608.44+6250j;
	phases CN;
	nominal_voltage 7216.88;
	name R1-12-47-1_node_200;
};

object node:235 {
	voltage_C -3608.44+6250j;
	phases CN;
	nominal_voltage 7216.88;
	name R1-12-47-1_node_201;
};

object node:236 {
	phases ABCN;
	name R1-12-47-1_node_202;
	voltage_B -3608.44-6250j;
	voltage_C -3608.44+6250j;
	voltage_A 7216.88+0.0j;
	nominal_voltage 7216.88;
};

object node:237 {
	phases ABCN;
	name R1-12-47-1_node_203;
	voltage_B -3608.44-6250j;
	voltage_C -3608.44+6250j;
	voltage_A 7216.88+0.0j;
	nominal_voltage 7216.88;
};

object node:238 {
	phases ABCN;
	name R1-12-47-1_node_204;
	voltage_B -3608.44-6250j;
	voltage_C -3608.44+6250j;
	voltage_A 7216.88+0.0j;
	nominal_voltage 7216.88;
};

object node:239 {
	voltage_B -3608.44-6250j;
	phases BN;
	nominal_voltage 7216.88;
	name R1-12-47-1_node_205;
};

object node:240 {
	voltage_B -3608.44-6250j;
	phases BN;
	nominal_voltage 7216.88;
	name R1-12-47-1_node_206;
};

object node:241 {
	voltage_B -3608.44-6250j;
	phases BN;
	nominal_voltage 7216.88;
	name R1-12-47-1_node_207;
};

object node:242 {
	voltage_B -3608.44-6250j;
	phases BN;
	nominal_voltage 7216.88;
	name R1-12-47-1_node_208;
};

object node:243 {
	voltage_B -3608.44-6250j;
	phases BN;
	nominal_voltage 7216.88;
	name R1-12-47-1_node_209;
};

object node:244 {
	voltage_B -3608.44-6250j;
	phases BN;
	nominal_voltage 7216.88;
	name R1-12-47-1_node_210;
};

object node:245 {
	voltage_B -3608.44-6250j;
	phases BN;
	nominal_voltage 7216.88;
	name R1-12-47-1_node_211;
};

object node:246 {
	voltage_B -3608.44-6250j;
	phases BN;
	nominal_voltage 7216.88;
	name R1-12-47-1_node_212;
};

object node:247 {
	voltage_B -3608.44-6250j;
	phases BN;
	nominal_voltage 7216.88;
	name R1-12-47-1_node_213;
};

object node:248 {
	voltage_B -3608.44-6250j;
	phases BN;
	nominal_voltage 7216.88;
	name R1-12-47-1_node_214;
};

object node:249 {
	phases ABCN;
	name R1-12-47-1_node_215;
	voltage_B -3608.44-6250j;
	voltage_C -3608.44+6250j;
	voltage_A 7216.88+0.0j;
	nominal_voltage 7216.88;
};

object node:250 {
	phases ABCN;
	name R1-12-47-1_node_216;
	voltage_B -3608.44-6250j;
	voltage_C -3608.44+6250j;
	voltage_A 7216.88+0.0j;
	nominal_voltage 7216.88;
};

object node:251 {
	phases ABCN;
	name R1-12-47-1_node_217;
	voltage_B -3608.44-6250j;
	voltage_C -3608.44+6250j;
	voltage_A 7216.88+0.0j;
	nominal_voltage 7216.88;
};

object node:252 {
	phases ABCN;
	name R1-12-47-1_node_218;
	voltage_B -3608.44-6250j;
	voltage_C -3608.44+6250j;
	voltage_A 7216.88+0.0j;
	nominal_voltage 7216.88;
};

object node:253 {
	voltage_C -3608.44+6250j;
	phases CN;
	nominal_voltage 7216.88;
	name R1-12-47-1_node_219;
};

object node:254 {
	voltage_C -3608.44+6250j;
	phases CN;
	nominal_voltage 7216.88;
	name R1-12-47-1_node_220;
};

object node:255 {
	voltage_C -3608.44+6250j;
	phases CN;
	nominal_voltage 7216.88;
	name R1-12-47-1_node_221;
};

object node:256 {
	voltage_C -3608.44+6250j;
	phases CN;
	nominal_voltage 7216.88;
	name R1-12-47-1_node_222;
};

object node:257 {
	voltage_C -3608.44+6250j;
	phases CN;
	nominal_voltage 7216.88;
	name R1-12-47-1_node_223;
};

object node:258 {
	voltage_C -3608.44+6250j;
	phases CN;
	nominal_voltage 7216.88;
	name R1-12-47-1_node_224;
};

object node:259 {
	voltage_C -3608.44+6250j;
	phases CN;
	nominal_voltage 7216.88;
	name R1-12-47-1_node_225;
};

object node:260 {
	voltage_C -3608.44+6250j;
	phases CN;
	nominal_voltage 7216.88;
	name R1-12-47-1_node_226;
};

object node:261 {
	phases ABCN;
	name R1-12-47-1_node_227;
	voltage_B -3608.44-6250j;
	voltage_C -3608.44+6250j;
	voltage_A 7216.88+0.0j;
	nominal_voltage 7216.88;
};

object node:262 {
	phases ABCN;
	name R1-12-47-1_node_228;
	voltage_B -3608.44-6250j;
	voltage_C -3608.44+6250j;
	voltage_A 7216.88+0.0j;
	nominal_voltage 7216.88;
};

object node:263 {
	phases ABCN;
	name R1-12-47-1_node_229;
	voltage_B -3608.44-6250j;
	voltage_C -3608.44+6250j;
...